Version 4
SHEET 1 880 680
WIRE 736 176 736 96
WIRE 96 192 -64 192
WIRE 368 192 320 192
WIRE -64 224 -64 192
WIRE 576 240 576 112
WIRE 96 256 -192 256
WIRE 96 320 32 320
WIRE -192 336 -192 256
WIRE 96 384 48 384
WIRE 416 384 320 384
WIRE 576 384 576 320
WIRE 416 432 416 384
WIRE 576 512 576 448
WIRE 416 560 416 512
FLAG -64 224 0
FLAG -192 416 0
FLAG 736 256 0
FLAG 736 96 Vcc
FLAG 368 192 Vcc
FLAG 48 384 Vcc
FLAG 416 560 0
FLAG 576 512 0
FLAG 576 112 Vcc
FLAG 32 320 Vout
SYMBOL Misc\\NE555 208 288 R0
SYMATTR InstName U1
SYMBOL voltage -192 320 R0
SYMATTR InstName V1
SYMBOL voltage 416 416 R0
SYMATTR InstName V2
SYMBOL voltage 736 160 R0
WINDOW 123 0 0 Left 0
WINDOW 39 0 0 Left 0
SYMATTR InstName V3
SYMATTR Value 5
SYMBOL res 560 224 R0
SYMATTR InstName R1
SYMBOL cap 560 384 R0
SYMATTR InstName C1
